[root]
type=Root
children=system
eventq_index=0
full_system=false
sim_quantum=0
time_sync_enable=false
time_sync_period=100000000000
time_sync_spin_threshold=100000000

[system]
type=System
children=clk_domain comm_monitor_dma_devices0 comm_monitor_dma_devices1 comm_monitor_dma_devices2 comm_monitor_dma_devices3 comm_monitor_mem_devices0 comm_monitor_mem_devices1 comm_monitor_mem_devices2 comm_monitor_mem_devices3 cpu0 cpu1 dma_devices0 dma_devices1 dma_devices2 dma_devices3 dvfs_handler mem_ctrls00 mem_ctrls01 mem_ctrls02 mem_ctrls03 mem_ctrls04 mem_ctrls05 mem_ctrls06 mem_ctrls07 mem_ctrls08 mem_ctrls09 mem_ctrls10 mem_ctrls11 redirect_paths0 redirect_paths1 redirect_paths2 ruby sys_port_proxy voltage_domain workload
auto_unlink_shared_backstore=false
cache_line_size=64
eventq_index=0
exit_on_work_items=false
init_param=0
m5ops_base=0
mem_mode=timing
mem_ranges=2147483648:4294967296 36507222016:68719476736 584115552256:1099511627776
memories=system.mem_ctrls00.dram system.mem_ctrls01.dram system.mem_ctrls02.dram system.mem_ctrls03.dram system.mem_ctrls04.dram system.mem_ctrls05.dram system.mem_ctrls06.dram system.mem_ctrls07.dram system.mem_ctrls08.dram system.mem_ctrls09.dram system.mem_ctrls10.dram system.mem_ctrls11.dram
mmap_using_noreserve=true
multi_thread=false
num_work_ids=16
readfile=
redirect_paths=system.redirect_paths0 system.redirect_paths1 system.redirect_paths2
shadow_rom_ranges=
shared_backstore=
symbolfile=
thermal_components=
thermal_model=Null
work_begin_ckpt_count=0
work_begin_cpu_id_exit=-1
work_begin_exit_count=0
work_cpus_ckpt_count=0
work_end_ckpt_count=0
work_end_exit_count=0
work_item_id=-1
workload=system.workload
system_port=system.sys_port_proxy.in_ports[0]

[system.clk_domain]
type=SrcClockDomain
clock=1111
domain_id=-1
eventq_index=0
init_perf_level=0
voltage_domain=system.voltage_domain

[system.comm_monitor_dma_devices0]
type=CommMonitor
bandwidth_bins=20
burst_length_bins=20
disable_addr_dists=true
disable_bandwidth_hists=false
disable_burst_length_hists=false
disable_itt_dists=false
disable_latency_hists=false
disable_outstanding_hists=false
disable_transaction_hists=false
eventq_index=0
itt_bins=20
itt_max_bin=100000
latency_bins=20
outstanding_bins=20
read_addr_mask=18446744073709551615
sample_period=1000000000
system=system
transaction_bins=20
write_addr_mask=18446744073709551615
cpu_side_port=system.dma_devices0.port
mem_side_port=system.ruby.dma_rni0.cntrl.sequencer.in_ports[0]

[system.comm_monitor_dma_devices1]
type=CommMonitor
bandwidth_bins=20
burst_length_bins=20
disable_addr_dists=true
disable_bandwidth_hists=false
disable_burst_length_hists=false
disable_itt_dists=false
disable_latency_hists=false
disable_outstanding_hists=false
disable_transaction_hists=false
eventq_index=0
itt_bins=20
itt_max_bin=100000
latency_bins=20
outstanding_bins=20
read_addr_mask=18446744073709551615
sample_period=1000000000
system=system
transaction_bins=20
write_addr_mask=18446744073709551615
cpu_side_port=system.dma_devices1.port
mem_side_port=system.ruby.dma_rni1.cntrl.sequencer.in_ports[0]

[system.comm_monitor_dma_devices2]
type=CommMonitor
bandwidth_bins=20
burst_length_bins=20
disable_addr_dists=true
disable_bandwidth_hists=false
disable_burst_length_hists=false
disable_itt_dists=false
disable_latency_hists=false
disable_outstanding_hists=false
disable_transaction_hists=false
eventq_index=0
itt_bins=20
itt_max_bin=100000
latency_bins=20
outstanding_bins=20
read_addr_mask=18446744073709551615
sample_period=1000000000
system=system
transaction_bins=20
write_addr_mask=18446744073709551615
cpu_side_port=system.dma_devices2.port
mem_side_port=system.ruby.dma_rni2.cntrl.sequencer.in_ports[0]

[system.comm_monitor_dma_devices3]
type=CommMonitor
bandwidth_bins=20
burst_length_bins=20
disable_addr_dists=true
disable_bandwidth_hists=false
disable_burst_length_hists=false
disable_itt_dists=false
disable_latency_hists=false
disable_outstanding_hists=false
disable_transaction_hists=false
eventq_index=0
itt_bins=20
itt_max_bin=100000
latency_bins=20
outstanding_bins=20
read_addr_mask=18446744073709551615
sample_period=1000000000
system=system
transaction_bins=20
write_addr_mask=18446744073709551615
cpu_side_port=system.dma_devices3.port
mem_side_port=system.ruby.dma_rni3.cntrl.sequencer.in_ports[0]

[system.comm_monitor_mem_devices0]
type=CommMonitor
bandwidth_bins=20
burst_length_bins=20
disable_addr_dists=true
disable_bandwidth_hists=false
disable_burst_length_hists=false
disable_itt_dists=false
disable_latency_hists=false
disable_outstanding_hists=false
disable_transaction_hists=false
eventq_index=0
itt_bins=20
itt_max_bin=100000
latency_bins=20
outstanding_bins=20
read_addr_mask=18446744073709551615
sample_period=1000000000
system=system
transaction_bins=20
write_addr_mask=18446744073709551615
cpu_side_port=system.ruby.snf0.cntrl.memory_out_port
mem_side_port=system.ruby.crossbars0.cpu_side_ports[0]

[system.comm_monitor_mem_devices1]
type=CommMonitor
bandwidth_bins=20
burst_length_bins=20
disable_addr_dists=true
disable_bandwidth_hists=false
disable_burst_length_hists=false
disable_itt_dists=false
disable_latency_hists=false
disable_outstanding_hists=false
disable_transaction_hists=false
eventq_index=0
itt_bins=20
itt_max_bin=100000
latency_bins=20
outstanding_bins=20
read_addr_mask=18446744073709551615
sample_period=1000000000
system=system
transaction_bins=20
write_addr_mask=18446744073709551615
cpu_side_port=system.ruby.snf1.cntrl.memory_out_port
mem_side_port=system.ruby.crossbars1.cpu_side_ports[0]

[system.comm_monitor_mem_devices2]
type=CommMonitor
bandwidth_bins=20
burst_length_bins=20
disable_addr_dists=true
disable_bandwidth_hists=false
disable_burst_length_hists=false
disable_itt_dists=false
disable_latency_hists=false
disable_outstanding_hists=false
disable_transaction_hists=false
eventq_index=0
itt_bins=20
itt_max_bin=100000
latency_bins=20
outstanding_bins=20
read_addr_mask=18446744073709551615
sample_period=1000000000
system=system
transaction_bins=20
write_addr_mask=18446744073709551615
cpu_side_port=system.ruby.snf2.cntrl.memory_out_port
mem_side_port=system.ruby.crossbars2.cpu_side_ports[0]

[system.comm_monitor_mem_devices3]
type=CommMonitor
bandwidth_bins=20
burst_length_bins=20
disable_addr_dists=true
disable_bandwidth_hists=false
disable_burst_length_hists=false
disable_itt_dists=false
disable_latency_hists=false
disable_outstanding_hists=false
disable_transaction_hists=false
eventq_index=0
itt_bins=20
itt_max_bin=100000
latency_bins=20
outstanding_bins=20
read_addr_mask=18446744073709551615
sample_period=1000000000
system=system
transaction_bins=20
write_addr_mask=18446744073709551615
cpu_side_port=system.ruby.snf3.cntrl.memory_out_port
mem_side_port=system.ruby.crossbars3.cpu_side_ports[0]

[system.cpu0]
type=PyTrafficGen
children=data_sequencer inst_sequencer l1d l1i l2 power_state
clk_domain=system.clk_domain
cpu_id=-1
elastic_req=false
eventq_index=0
max_outstanding_reqs=0
numThreads=1
power_model=
power_state=system.cpu0.power_state
progress_check=1000000000
sids=
socket_id=0
ssids=
stream_gen=none
system=system
port=system.cpu0.data_sequencer.in_ports[0]

[system.cpu0.data_sequencer]
type=RubySequencer
children=power_state
clk_domain=system.clk_domain
coreid=99
dcache=system.cpu0.l1d.cache
deadlock_threshold=5000000
eventq_index=0
garnet_standalone=false
is_cpu_sequencer=true
max_outstanding_requests=16
no_retry_on_stall=false
power_model=
power_state=system.cpu0.data_sequencer.power_state
ruby_system=system.ruby
support_data_reqs=true
support_inst_reqs=true
system=system
using_ruby_tester=false
version=1
in_ports=system.cpu0.port

[system.cpu0.data_sequencer.power_state]
type=PowerState
clk_gate_bins=20
clk_gate_max=1000000000000
clk_gate_min=1000
default_state=UNDEFINED
eventq_index=0
leaders=
possible_states=

[system.cpu0.inst_sequencer]
type=RubySequencer
children=power_state
clk_domain=system.clk_domain
coreid=99
dcache=Null
deadlock_threshold=5000000
eventq_index=0
garnet_standalone=false
is_cpu_sequencer=true
max_outstanding_requests=16
no_retry_on_stall=false
power_model=
power_state=system.cpu0.inst_sequencer.power_state
ruby_system=system.ruby
support_data_reqs=true
support_inst_reqs=true
system=system
using_ruby_tester=false
version=0

[system.cpu0.inst_sequencer.power_state]
type=PowerState
clk_gate_bins=20
clk_gate_max=1000000000000
clk_gate_min=1000
default_state=UNDEFINED
eventq_index=0
leaders=
possible_states=

[system.cpu0.l1d]
type=Cache_Controller
children=cache datIn datOut mandatoryQueue power_state prefetchQueue replTriggerQueue reqIn reqOut reqRdy retryTriggerQueue rspIn rspOut snpIn snpOut snpRdy triggerQueue
addr_ranges=0:18446744073709551615
alloc_on_readonce=true
alloc_on_readshared=true
alloc_on_readunique=true
alloc_on_seq_acc=true
alloc_on_seq_line_write=false
alloc_on_writeback=true
allocation_latency=0
allow_SD=true
buffer_size=0
cache=system.cpu0.l1d.cache
clk_domain=system.clk_domain
cluster_id=0
comp_wu=false
comp_wu_latency=0
datIn=system.cpu0.l1d.datIn
datOut=system.cpu0.l1d.datOut
data_channel_size=32
data_latency=1
dealloc_backinv_shared=true
dealloc_backinv_unique=true
dealloc_on_shared=false
dealloc_on_unique=false
dealloc_wait_for_tag=false
downstream_destinations=system.cpu0.l2
dvm_ext_tlbi_latency=6
enable_DCT=false
enable_DMT=false
enable_DMT_early_dealloc=false
eventq_index=0
fill_latency=0
fwd_unique_on_readshared=false
is_HN=false
mandatoryQueue=system.cpu0.l1d.mandatoryQueue
mandatory_queue_latency=1
number_of_DVM_TBEs=16
number_of_DVM_snoop_TBEs=4
number_of_TBEs=16
number_of_repl_TBEs=16
number_of_snoop_TBEs=4
power_model=
power_state=system.cpu0.l1d.power_state
prefetchQueue=system.cpu0.l1d.prefetchQueue
read_hit_latency=0
read_miss_latency=0
recycle_latency=10
replTriggerQueue=system.cpu0.l1d.replTriggerQueue
reqIn=system.cpu0.l1d.reqIn
reqOut=system.cpu0.l1d.reqOut
reqRdy=system.cpu0.l1d.reqRdy
request_latency=1
response_latency=1
retryTriggerQueue=system.cpu0.l1d.retryTriggerQueue
rspIn=system.cpu0.l1d.rspIn
rspOut=system.cpu0.l1d.rspOut
ruby_system=system.ruby
sc_lock_base_latency_cy=4
sc_lock_enabled=true
sc_lock_multiplier_decay=1
sc_lock_multiplier_inc=4
sc_lock_multiplier_max=256
send_evictions=true
sequencer=system.cpu0.data_sequencer
snoop_latency=1
snpIn=system.cpu0.l1d.snpIn
snpOut=system.cpu0.l1d.snpOut
snpRdy=system.cpu0.l1d.snpRdy
snp_inv_latency=0
snp_latency=0
stall_recycle_lat=1
system=system
throttle_req_on_retry=true
transitions_per_cycle=1024
triggerQueue=system.cpu0.l1d.triggerQueue
unify_repl_TBEs=false
upstream_destinations=
upstream_prefetch_trains_prefetcher=false
use_prefetcher=false
version=1
wait_for_cache_wr=false
write_be_latency=0
write_fe_latency=0

[system.cpu0.l1d.cache]
type=RubyCache
children=replacement_policy
assoc=4
block_size=0
dataAccessLatency=2
dataArrayBanks=1
eventq_index=0
is_icache=false
replacement_policy=system.cpu0.l1d.cache.replacement_policy
resourceStalls=false
ruby_system=system.ruby
size=32768
start_index_bit=6
tagAccessLatency=1
tagArrayBanks=1

[system.cpu0.l1d.cache.replacement_policy]
type=TreePLRURP
eventq_index=0
num_leaves=4

[system.cpu0.l1d.datIn]
type=MessageBuffer
allow_zero_latency=false
buffer_size=0
eventq_index=0
max_dequeue_rate=0
ordered=false
randomization=ruby_system
routing_priority=0
in_port=system.ruby.network.out_port[7]

[system.cpu0.l1d.datOut]
type=MessageBuffer
allow_zero_latency=false
buffer_size=0
eventq_index=0
max_dequeue_rate=0
ordered=false
randomization=ruby_system
routing_priority=0
out_port=system.ruby.network.in_port[7]

[system.cpu0.l1d.mandatoryQueue]
type=MessageBuffer
allow_zero_latency=false
buffer_size=0
eventq_index=0
max_dequeue_rate=0
ordered=false
randomization=ruby_system
routing_priority=0

[system.cpu0.l1d.power_state]
type=PowerState
clk_gate_bins=20
clk_gate_max=1000000000000
clk_gate_min=1000
default_state=UNDEFINED
eventq_index=0
leaders=
possible_states=

[system.cpu0.l1d.prefetchQueue]
type=MessageBuffer
allow_zero_latency=false
buffer_size=0
eventq_index=0
max_dequeue_rate=0
ordered=false
randomization=ruby_system
routing_priority=0

[system.cpu0.l1d.replTriggerQueue]
type=MessageBuffer
allow_zero_latency=true
buffer_size=0
eventq_index=0
max_dequeue_rate=0
ordered=true
randomization=disabled
routing_priority=0

[system.cpu0.l1d.reqIn]
type=MessageBuffer
allow_zero_latency=false
buffer_size=0
eventq_index=0
max_dequeue_rate=0
ordered=false
randomization=ruby_system
routing_priority=0
in_port=system.ruby.network.out_port[4]

[system.cpu0.l1d.reqOut]
type=MessageBuffer
allow_zero_latency=false
buffer_size=0
eventq_index=0
max_dequeue_rate=0
ordered=false
randomization=ruby_system
routing_priority=0
out_port=system.ruby.network.in_port[4]

[system.cpu0.l1d.reqRdy]
type=MessageBuffer
allow_zero_latency=true
buffer_size=0
eventq_index=0
max_dequeue_rate=0
ordered=false
randomization=disabled
routing_priority=0

[system.cpu0.l1d.retryTriggerQueue]
type=MessageBuffer
allow_zero_latency=true
buffer_size=0
eventq_index=0
max_dequeue_rate=0
ordered=true
randomization=disabled
routing_priority=0

[system.cpu0.l1d.rspIn]
type=MessageBuffer
allow_zero_latency=false
buffer_size=0
eventq_index=0
max_dequeue_rate=0
ordered=false
randomization=ruby_system
routing_priority=0
in_port=system.ruby.network.out_port[5]

[system.cpu0.l1d.rspOut]
type=MessageBuffer
allow_zero_latency=false
buffer_size=0
eventq_index=0
max_dequeue_rate=0
ordered=false
randomization=ruby_system
routing_priority=0
out_port=system.ruby.network.in_port[5]

[system.cpu0.l1d.snpIn]
type=MessageBuffer
allow_zero_latency=false
buffer_size=0
eventq_index=0
max_dequeue_rate=0
ordered=false
randomization=ruby_system
routing_priority=0
in_port=system.ruby.network.out_port[6]

[system.cpu0.l1d.snpOut]
type=MessageBuffer
allow_zero_latency=false
buffer_size=0
eventq_index=0
max_dequeue_rate=0
ordered=false
randomization=ruby_system
routing_priority=0
out_port=system.ruby.network.in_port[6]

[system.cpu0.l1d.snpRdy]
type=MessageBuffer
allow_zero_latency=true
buffer_size=0
eventq_index=0
max_dequeue_rate=0
ordered=false
randomization=disabled
routing_priority=0

[system.cpu0.l1d.triggerQueue]
type=MessageBuffer
allow_zero_latency=true
buffer_size=0
eventq_index=0
max_dequeue_rate=0
ordered=false
randomization=disabled
routing_priority=0

[system.cpu0.l1i]
type=Cache_Controller
children=cache datIn datOut mandatoryQueue power_state prefetchQueue replTriggerQueue reqIn reqOut reqRdy retryTriggerQueue rspIn rspOut snpIn snpOut snpRdy triggerQueue
addr_ranges=0:18446744073709551615
alloc_on_readonce=true
alloc_on_readshared=true
alloc_on_readunique=true
alloc_on_seq_acc=true
alloc_on_seq_line_write=false
alloc_on_writeback=true
allocation_latency=0
allow_SD=true
buffer_size=0
cache=system.cpu0.l1i.cache
clk_domain=system.clk_domain
cluster_id=0
comp_wu=false
comp_wu_latency=0
datIn=system.cpu0.l1i.datIn
datOut=system.cpu0.l1i.datOut
data_channel_size=32
data_latency=1
dealloc_backinv_shared=true
dealloc_backinv_unique=true
dealloc_on_shared=false
dealloc_on_unique=false
dealloc_wait_for_tag=false
downstream_destinations=system.cpu0.l2
dvm_ext_tlbi_latency=6
enable_DCT=false
enable_DMT=false
enable_DMT_early_dealloc=false
eventq_index=0
fill_latency=0
fwd_unique_on_readshared=false
is_HN=false
mandatoryQueue=system.cpu0.l1i.mandatoryQueue
mandatory_queue_latency=1
number_of_DVM_TBEs=16
number_of_DVM_snoop_TBEs=4
number_of_TBEs=16
number_of_repl_TBEs=16
number_of_snoop_TBEs=4
power_model=
power_state=system.cpu0.l1i.power_state
prefetchQueue=system.cpu0.l1i.prefetchQueue
read_hit_latency=0
read_miss_latency=0
recycle_latency=10
replTriggerQueue=system.cpu0.l1i.replTriggerQueue
reqIn=system.cpu0.l1i.reqIn
reqOut=system.cpu0.l1i.reqOut
reqRdy=system.cpu0.l1i.reqRdy
request_latency=1
response_latency=1
retryTriggerQueue=system.cpu0.l1i.retryTriggerQueue
rspIn=system.cpu0.l1i.rspIn
rspOut=system.cpu0.l1i.rspOut
ruby_system=system.ruby
sc_lock_base_latency_cy=4
sc_lock_enabled=false
sc_lock_multiplier_decay=1
sc_lock_multiplier_inc=4
sc_lock_multiplier_max=256
send_evictions=true
sequencer=system.cpu0.inst_sequencer
snoop_latency=1
snpIn=system.cpu0.l1i.snpIn
snpOut=system.cpu0.l1i.snpOut
snpRdy=system.cpu0.l1i.snpRdy
snp_inv_latency=0
snp_latency=0
stall_recycle_lat=1
system=system
throttle_req_on_retry=true
transitions_per_cycle=1024
triggerQueue=system.cpu0.l1i.triggerQueue
unify_repl_TBEs=false
upstream_destinations=
upstream_prefetch_trains_prefetcher=false
use_prefetcher=false
version=0
wait_for_cache_wr=false
write_be_latency=0
write_fe_latency=0

[system.cpu0.l1i.cache]
type=RubyCache
children=replacement_policy
assoc=4
block_size=0
dataAccessLatency=1
dataArrayBanks=1
eventq_index=0
is_icache=true
replacement_policy=system.cpu0.l1i.cache.replacement_policy
resourceStalls=false
ruby_system=system.ruby
size=32768
start_index_bit=6
tagAccessLatency=1
tagArrayBanks=1

[system.cpu0.l1i.cache.replacement_policy]
type=TreePLRURP
eventq_index=0
num_leaves=4

[system.cpu0.l1i.datIn]
type=MessageBuffer
allow_zero_latency=false
buffer_size=0
eventq_index=0
max_dequeue_rate=0
ordered=false
randomization=ruby_system
routing_priority=0
in_port=system.ruby.network.out_port[3]

[system.cpu0.l1i.datOut]
type=MessageBuffer
allow_zero_latency=false
buffer_size=0
eventq_index=0
max_dequeue_rate=0
ordered=false
randomization=ruby_system
routing_priority=0
out_port=system.ruby.network.in_port[3]

[system.cpu0.l1i.mandatoryQueue]
type=MessageBuffer
allow_zero_latency=false
buffer_size=0
eventq_index=0
max_dequeue_rate=0
ordered=false
randomization=ruby_system
routing_priority=0

[system.cpu0.l1i.power_state]
type=PowerState
clk_gate_bins=20
clk_gate_max=1000000000000
clk_gate_min=1000
default_state=UNDEFINED
eventq_index=0
leaders=
possible_states=

[system.cpu0.l1i.prefetchQueue]
type=MessageBuffer
allow_zero_latency=false
buffer_size=0
eventq_index=0
max_dequeue_rate=0
ordered=false
randomization=ruby_system
routing_priority=0

[system.cpu0.l1i.replTriggerQueue]
type=MessageBuffer
allow_zero_latency=true
buffer_size=0
eventq_index=0
max_dequeue_rate=0
ordered=true
randomization=disabled
routing_priority=0

[system.cpu0.l1i.reqIn]
type=MessageBuffer
allow_zero_latency=false
buffer_size=0
eventq_index=0
max_dequeue_rate=0
ordered=false
randomization=ruby_system
routing_priority=0
in_port=system.ruby.network.out_port[0]

[system.cpu0.l1i.reqOut]
type=MessageBuffer
allow_zero_latency=false
buffer_size=0
eventq_index=0
max_dequeue_rate=0
ordered=false
randomization=ruby_system
routing_priority=0
out_port=system.ruby.network.in_port[0]

[system.cpu0.l1i.reqRdy]
type=MessageBuffer
allow_zero_latency=true
buffer_size=0
eventq_index=0
max_dequeue_rate=0
ordered=false
randomization=disabled
routing_priority=0

[system.cpu0.l1i.retryTriggerQueue]
type=MessageBuffer
allow_zero_latency=true
buffer_size=0
eventq_index=0
max_dequeue_rate=0
ordered=true
randomization=disabled
routing_priority=0

[system.cpu0.l1i.rspIn]
type=MessageBuffer
allow_zero_latency=false
buffer_size=0
eventq_index=0
max_dequeue_rate=0
ordered=false
randomization=ruby_system
routing_priority=0
in_port=system.ruby.network.out_port[1]

[system.cpu0.l1i.rspOut]
type=MessageBuffer
allow_zero_latency=false
buffer_size=0
eventq_index=0
max_dequeue_rate=0
ordered=false
randomization=ruby_system
routing_priority=0
out_port=system.ruby.network.in_port[1]

[system.cpu0.l1i.snpIn]
type=MessageBuffer
allow_zero_latency=false
buffer_size=0
eventq_index=0
max_dequeue_rate=0
ordered=false
randomization=ruby_system
routing_priority=0
in_port=system.ruby.network.out_port[2]

[system.cpu0.l1i.snpOut]
type=MessageBuffer
allow_zero_latency=false
buffer_size=0
eventq_index=0
max_dequeue_rate=0
ordered=false
randomization=ruby_system
routing_priority=0
out_port=system.ruby.network.in_port[2]

[system.cpu0.l1i.snpRdy]
type=MessageBuffer
allow_zero_latency=true
buffer_size=0
eventq_index=0
max_dequeue_rate=0
ordered=false
randomization=disabled
routing_priority=0

[system.cpu0.l1i.triggerQueue]
type=MessageBuffer
allow_zero_latency=true
buffer_size=0
eventq_index=0
max_dequeue_rate=0
ordered=false
randomization=disabled
routing_priority=0

[system.cpu0.l2]
type=Cache_Controller
children=cache datIn datOut mandatoryQueue power_state prefetchQueue replTriggerQueue reqIn reqOut reqRdy retryTriggerQueue rspIn rspOut snpIn snpOut snpRdy triggerQueue
addr_ranges=0:18446744073709551615
alloc_on_readonce=true
alloc_on_readshared=true
alloc_on_readunique=true
alloc_on_seq_acc=false
alloc_on_seq_line_write=false
alloc_on_writeback=true
allocation_latency=0
allow_SD=true
buffer_size=0
cache=system.cpu0.l2.cache
clk_domain=system.clk_domain
cluster_id=0
comp_wu=false
comp_wu_latency=0
datIn=system.cpu0.l2.datIn
datOut=system.cpu0.l2.datOut
data_channel_size=32
data_latency=1
dealloc_backinv_shared=true
dealloc_backinv_unique=true
dealloc_on_shared=false
dealloc_on_unique=false
dealloc_wait_for_tag=false
downstream_destinations=system.ruby.hnf.cntrl
dvm_ext_tlbi_latency=6
enable_DCT=false
enable_DMT=false
enable_DMT_early_dealloc=false
eventq_index=0
fill_latency=0
fwd_unique_on_readshared=false
is_HN=false
mandatoryQueue=system.cpu0.l2.mandatoryQueue
mandatory_queue_latency=1
number_of_DVM_TBEs=1
number_of_DVM_snoop_TBEs=1
number_of_TBEs=32
number_of_repl_TBEs=32
number_of_snoop_TBEs=16
power_model=
power_state=system.cpu0.l2.power_state
prefetchQueue=system.cpu0.l2.prefetchQueue
read_hit_latency=0
read_miss_latency=0
recycle_latency=10
replTriggerQueue=system.cpu0.l2.replTriggerQueue
reqIn=system.cpu0.l2.reqIn
reqOut=system.cpu0.l2.reqOut
reqRdy=system.cpu0.l2.reqRdy
request_latency=1
response_latency=1
retryTriggerQueue=system.cpu0.l2.retryTriggerQueue
rspIn=system.cpu0.l2.rspIn
rspOut=system.cpu0.l2.rspOut
ruby_system=system.ruby
sc_lock_base_latency_cy=4
sc_lock_enabled=false
sc_lock_multiplier_decay=1
sc_lock_multiplier_inc=4
sc_lock_multiplier_max=256
send_evictions=false
sequencer=Null
snoop_latency=1
snpIn=system.cpu0.l2.snpIn
snpOut=system.cpu0.l2.snpOut
snpRdy=system.cpu0.l2.snpRdy
snp_inv_latency=0
snp_latency=0
stall_recycle_lat=1
system=system
throttle_req_on_retry=true
transitions_per_cycle=1024
triggerQueue=system.cpu0.l2.triggerQueue
unify_repl_TBEs=false
upstream_destinations=
upstream_prefetch_trains_prefetcher=false
use_prefetcher=false
version=4
wait_for_cache_wr=false
write_be_latency=0
write_fe_latency=0

[system.cpu0.l2.cache]
type=RubyCache
children=replacement_policy
assoc=4
block_size=0
dataAccessLatency=6
dataArrayBanks=1
eventq_index=0
is_icache=false
replacement_policy=system.cpu0.l2.cache.replacement_policy
resourceStalls=false
ruby_system=system.ruby
size=131072
start_index_bit=6
tagAccessLatency=2
tagArrayBanks=1

[system.cpu0.l2.cache.replacement_policy]
type=TreePLRURP
eventq_index=0
num_leaves=4

[system.cpu0.l2.datIn]
type=MessageBuffer
allow_zero_latency=false
buffer_size=0
eventq_index=0
max_dequeue_rate=0
ordered=false
randomization=ruby_system
routing_priority=0
in_port=system.ruby.network.out_port[19]

[system.cpu0.l2.datOut]
type=MessageBuffer
allow_zero_latency=false
buffer_size=0
eventq_index=0
max_dequeue_rate=0
ordered=false
randomization=ruby_system
routing_priority=0
out_port=system.ruby.network.in_port[19]

[system.cpu0.l2.mandatoryQueue]
type=MessageBuffer
allow_zero_latency=false
buffer_size=0
eventq_index=0
max_dequeue_rate=0
ordered=false
randomization=ruby_system
routing_priority=0

[system.cpu0.l2.power_state]
type=PowerState
clk_gate_bins=20
clk_gate_max=1000000000000
clk_gate_min=1000
default_state=UNDEFINED
eventq_index=0
leaders=
possible_states=

[system.cpu0.l2.prefetchQueue]
type=MessageBuffer
allow_zero_latency=false
buffer_size=0
eventq_index=0
max_dequeue_rate=0
ordered=false
randomization=ruby_system
routing_priority=0

[system.cpu0.l2.replTriggerQueue]
type=MessageBuffer
allow_zero_latency=true
buffer_size=0
eventq_index=0
max_dequeue_rate=0
ordered=true
randomization=disabled
routing_priority=0

[system.cpu0.l2.reqIn]
type=MessageBuffer
allow_zero_latency=false
buffer_size=0
eventq_index=0
max_dequeue_rate=0
ordered=false
randomization=ruby_system
routing_priority=0
in_port=system.ruby.network.out_port[16]

[system.cpu0.l2.reqOut]
type=MessageBuffer
allow_zero_latency=false
buffer_size=0
eventq_index=0
max_dequeue_rate=0
ordered=false
randomization=ruby_system
routing_priority=0
out_port=system.ruby.network.in_port[16]

[system.cpu0.l2.reqRdy]
type=MessageBuffer
allow_zero_latency=true
buffer_size=0
eventq_index=0
max_dequeue_rate=0
ordered=false
randomization=disabled
routing_priority=0

[system.cpu0.l2.retryTriggerQueue]
type=MessageBuffer
allow_zero_latency=true
buffer_size=0
eventq_index=0
max_dequeue_rate=0
ordered=true
randomization=disabled
routing_priority=0

[system.cpu0.l2.rspIn]
type=MessageBuffer
allow_zero_latency=false
buffer_size=0
eventq_index=0
max_dequeue_rate=0
ordered=false
randomization=ruby_system
routing_priority=0
in_port=system.ruby.network.out_port[17]

[system.cpu0.l2.rspOut]
type=MessageBuffer
allow_zero_latency=false
buffer_size=0
eventq_index=0
max_dequeue_rate=0
ordered=false
randomization=ruby_system
routing_priority=0
out_port=system.ruby.network.in_port[17]

[system.cpu0.l2.snpIn]
type=MessageBuffer
allow_zero_latency=false
buffer_size=0
eventq_index=0
max_dequeue_rate=0
ordered=false
randomization=ruby_system
routing_priority=0
in_port=system.ruby.network.out_port[18]

[system.cpu0.l2.snpOut]
type=MessageBuffer
allow_zero_latency=false
buffer_size=0
eventq_index=0
max_dequeue_rate=0
ordered=false
randomization=ruby_system
routing_priority=0
out_port=system.ruby.network.in_port[18]

[system.cpu0.l2.snpRdy]
type=MessageBuffer
allow_zero_latency=true
buffer_size=0
eventq_index=0
max_dequeue_rate=0
ordered=false
randomization=disabled
routing_priority=0

[system.cpu0.l2.triggerQueue]
type=MessageBuffer
allow_zero_latency=true
buffer_size=0
eventq_index=0
max_dequeue_rate=0
ordered=false
randomization=disabled
routing_priority=0

[system.cpu0.power_state]
type=PowerState
clk_gate_bins=20
clk_gate_max=1000000000000
clk_gate_min=1000
default_state=UNDEFINED
eventq_index=0
leaders=
possible_states=

[system.cpu1]
type=PyTrafficGen
children=data_sequencer inst_sequencer l1d l1i l2 power_state
clk_domain=system.clk_domain
cpu_id=-1
elastic_req=false
eventq_index=0
max_outstanding_reqs=0
numThreads=1
power_model=
power_state=system.cpu1.power_state
progress_check=1000000000
sids=
socket_id=0
ssids=
stream_gen=none
system=system
port=system.cpu1.data_sequencer.in_ports[0]

[system.cpu1.data_sequencer]
type=RubySequencer
children=power_state
clk_domain=system.clk_domain
coreid=99
dcache=system.cpu1.l1d.cache
deadlock_threshold=5000000
eventq_index=0
garnet_standalone=false
is_cpu_sequencer=true
max_outstanding_requests=16
no_retry_on_stall=false
power_model=
power_state=system.cpu1.data_sequencer.power_state
ruby_system=system.ruby
support_data_reqs=true
support_inst_reqs=true
system=system
using_ruby_tester=false
version=3
in_ports=system.cpu1.port

[system.cpu1.data_sequencer.power_state]
type=PowerState
clk_gate_bins=20
clk_gate_max=1000000000000
clk_gate_min=1000
default_state=UNDEFINED
eventq_index=0
leaders=
possible_states=

[system.cpu1.inst_sequencer]
type=RubySequencer
children=power_state
clk_domain=system.clk_domain
coreid=99
dcache=Null
deadlock_threshold=5000000
eventq_index=0
garnet_standalone=false
is_cpu_sequencer=true
max_outstanding_requests=16
no_retry_on_stall=false
power_model=
power_state=system.cpu1.inst_sequencer.power_state
ruby_system=system.ruby
support_data_reqs=true
support_inst_reqs=true
system=system
using_ruby_tester=false
version=2

[system.cpu1.inst_sequencer.power_state]
type=PowerState
clk_gate_bins=20
clk_gate_max=1000000000000
clk_gate_min=1000
default_state=UNDEFINED
eventq_index=0
leaders=
possible_states=

[system.cpu1.l1d]
type=Cache_Controller
children=cache datIn datOut mandatoryQueue power_state prefetchQueue replTriggerQueue reqIn reqOut reqRdy retryTriggerQueue rspIn rspOut snpIn snpOut snpRdy triggerQueue
addr_ranges=0:18446744073709551615
alloc_on_readonce=true
alloc_on_readshared=true
alloc_on_readunique=true
alloc_on_seq_acc=true
alloc_on_seq_line_write=false
alloc_on_writeback=true
allocation_latency=0
allow_SD=true
buffer_size=0
cache=system.cpu1.l1d.cache
clk_domain=system.clk_domain
cluster_id=0
comp_wu=false
comp_wu_latency=0
datIn=system.cpu1.l1d.datIn
datOut=system.cpu1.l1d.datOut
data_channel_size=32
data_latency=1
dealloc_backinv_shared=true
dealloc_backinv_unique=true
dealloc_on_shared=false
dealloc_on_unique=false
dealloc_wait_for_tag=false
downstream_destinations=system.cpu1.l2
dvm_ext_tlbi_latency=6
enable_DCT=false
enable_DMT=false
enable_DMT_early_dealloc=false
eventq_index=0
fill_latency=0
fwd_unique_on_readshared=false
is_HN=false
mandatoryQueue=system.cpu1.l1d.mandatoryQueue
mandatory_queue_latency=1
number_of_DVM_TBEs=16
number_of_DVM_snoop_TBEs=4
number_of_TBEs=16
number_of_repl_TBEs=16
number_of_snoop_TBEs=4
power_model=
power_state=system.cpu1.l1d.power_state
prefetchQueue=system.cpu1.l1d.prefetchQueue
read_hit_latency=0
read_miss_latency=0
recycle_latency=10
replTriggerQueue=system.cpu1.l1d.replTriggerQueue
reqIn=system.cpu1.l1d.reqIn
reqOut=system.cpu1.l1d.reqOut
reqRdy=system.cpu1.l1d.reqRdy
request_latency=1
response_latency=1
retryTriggerQueue=system.cpu1.l1d.retryTriggerQueue
rspIn=system.cpu1.l1d.rspIn
rspOut=system.cpu1.l1d.rspOut
ruby_system=system.ruby
sc_lock_base_latency_cy=4
sc_lock_enabled=true
sc_lock_multiplier_decay=1
sc_lock_multiplier_inc=4
sc_lock_multiplier_max=256
send_evictions=true
sequencer=system.cpu1.data_sequencer
snoop_latency=1
snpIn=system.cpu1.l1d.snpIn
snpOut=system.cpu1.l1d.snpOut
snpRdy=system.cpu1.l1d.snpRdy
snp_inv_latency=0
snp_latency=0
stall_recycle_lat=1
system=system
throttle_req_on_retry=true
transitions_per_cycle=1024
triggerQueue=system.cpu1.l1d.triggerQueue
unify_repl_TBEs=false
upstream_destinations=
upstream_prefetch_trains_prefetcher=false
use_prefetcher=false
version=3
wait_for_cache_wr=false
write_be_latency=0
write_fe_latency=0
